A71EV2A-x0310_0A
  PyMOL2.6          3D                             0

  6  6  0  0  0  0  0  0  0  0999 V2000
    8.1290    9.5440   24.1720 N   0  0  0  0  0  0  0  0  0  0  0  0
   10.0090    8.9300   22.7290 C   0  0  0  0  0  0  0  0  0  0  0  0
    9.1460    9.9310   23.4240 C   0  0  0  0  0  0  0  0  0  0  0  0
    8.2190   11.7840   24.2520 C   0  0  0  0  0  0  0  0  0  0  0  0
    9.2300   11.3420   23.4550 C   0  0  0  0  0  0  0  0  0  0  0  0
    7.5880   10.6890   24.6750 N   0  0  0  0  0  0  0  0  0  0  0  0
  1  3  2  0  0  0  0
  2  3  1  0  0  0  0
  3  5  1  0  0  0  0
  4  5  2  0  0  0  0
  1  6  1  0  0  0  0
  4  6  1  0  0  0  0
M  END
