A71EV2A-x0556_0A
  PyMOL2.6          3D                             0

  7  7  0  0  0  0  0  0  0  0999 V2000
    5.4530   11.9580   26.4510 O   0  0  0  0  0  0  0  0  0  0  0  0
    6.1230   10.9450   26.2690 C   0  0  0  0  0  0  0  0  0  0  0  0
    4.8230    9.5810   27.8650 C   0  0  0  0  0  0  0  0  0  0  0  0
    4.9950    8.4540   28.8800 C   0  0  0  0  0  0  0  0  0  0  0  0
    3.5120    8.1320   28.6950 C   0  0  0  0  0  0  0  0  0  0  0  0
    3.5580    8.8590   27.3480 C   0  0  0  0  0  0  0  0  0  0  0  0
    5.9200    9.7880   26.9190 N   0  0  0  0  0  0  0  0  0  0  0  0
  1  2  2  0  0  0  0
  3  7  1  0  0  0  0
  3  4  1  0  0  0  0
  4  5  1  0  0  0  0
  3  6  1  0  0  0  0
  5  6  1  0  0  0  0
  2  7  1  0  0  0  0
M  END
